$DATA1 SOURCE='HSPICE' VERSION='D-2010.03-SP2 32-BIT'
.TITLE '* hspice deck'
 ttran            tpdrise_s_2      tpdfall_s_2      totrrise_s_2      
                  totrfall_s_2     temper           alter#            
  2.000e-09        5.817e-10        6.443e-10        3.011e-10        
                   3.071e-10        125.0000        1                 
  1.000e-09        4.233e-10        4.276e-10        2.259e-10        
                   1.970e-10        125.0000        1                 
